MSC0413.pdb
 OpenBabel10102413143D

 22 21  0  0  1  0  0  0  0  0999 V2000
   -0.5132    1.2993   -0.5684 C   0  0  0  0  0  0  0  0  0  0  0  0
   -1.1934    2.1152    0.0381 O   0  0  0  0  0  0  0  0  0  0  0  0
    0.0078   -0.0078    0.0078 C   0  0  2  0  0  0  0  0  0  0  0  0
   -0.6328   -1.1401   -0.7788 C   0  0  0  0  0  0  0  0  0  0  0  0
   -1.7241   -1.0342   -0.8220 H   0  0  0  0  0  0  0  0  0  0  0  0
   -0.2882   -1.1514   -1.8208 H   0  0  0  0  0  0  0  0  0  0  0  0
   -0.3314   -2.4873   -0.1722 C   0  0  0  0  0  0  0  0  0  0  0  0
   -0.2965   -3.4600   -1.1191 O   0  0  0  0  0  0  0  0  0  0  0  0
   -0.1028   -4.3398   -0.7336 H   0  0  0  0  0  0  0  0  0  0  0  0
   -0.1400   -2.6992    1.0171 O   0  0  0  0  0  0  0  0  0  0  0  0
    1.5249    0.0078    0.0135 C   0  0  2  0  0  0  0  0  0  0  0  0
    1.9160   -0.0412   -1.0234 H   0  0  0  0  0  0  0  0  0  0  0  0
    2.0938    1.2378    0.6470 C   0  0  0  0  0  0  0  0  0  0  0  0
    2.3486    1.0347    1.9653 O   0  0  0  0  0  0  0  0  0  0  0  0
    2.7178    1.8354    2.3955 H   0  0  0  0  0  0  0  0  0  0  0  0
    2.3076    2.2979    0.0760 O   0  0  0  0  0  0  0  0  0  0  0  0
    2.0303   -1.1504    0.6643 O   0  0  0  0  0  0  0  0  0  0  0  0
    1.6343   -1.1772    1.5522 H   0  0  0  0  0  0  0  0  0  0  0  0
   -0.4978    0.0078    1.3398 O   0  0  0  0  0  0  0  0  0  0  0  0
   -0.2409   -0.8345    1.7661 H   0  0  0  0  0  0  0  0  0  0  0  0
   -0.1248    1.4629   -1.8594 O   0  0  0  0  0  0  0  0  0  0  0  0
   -0.4526    2.3066   -2.2373 H   0  0  0  0  0  0  0  0  0  0  0  0
  1 21  1  0  0  0  0
  1  2  2  0  0  0  0
  3  1  1  6  0  0  0
  3 19  1  0  0  0  0
  3 11  1  0  0  0  0
  3  4  1  0  0  0  0
  4  7  1  0  0  0  0
  4  6  1  0  0  0  0
  4  5  1  0  0  0  0
  7 10  2  0  0  0  0
  7  8  1  0  0  0  0
  8  9  1  0  0  0  0
 11 17  1  0  0  0  0
 11 13  1  0  0  0  0
 11 12  1  6  0  0  0
 13 16  2  0  0  0  0
 13 14  1  0  0  0  0
 14 15  1  0  0  0  0
 17 18  1  0  0  0  0
 19 20  1  0  0  0  0
 21 22  1  0  0  0  0
M  END
$$$$
