MSC1706.pdb
 OpenBabel10102413143D

 36 36  0  0  1  0  0  0  0  0999 V2000
   -1.4746    1.2495    1.4155 C   0  0  2  0  0  0  0  0  0  0  0  0
   -2.2031    1.2402    0.5930 H   0  0  0  0  0  0  0  0  0  0  0  0
   -0.6169    0.0078    1.2935 C   0  0  0  0  0  0  0  0  0  0  0  0
   -1.2363   -0.8989    1.3916 H   0  0  0  0  0  0  0  0  0  0  0  0
    0.1685   -0.0143    2.0586 H   0  0  0  0  0  0  0  0  0  0  0  0
    0.0078    0.0078   -0.0078 O   0  0  0  0  0  0  0  0  0  0  0  0
    1.3638    0.0078    0.0078 C   0  0  0  0  0  0  0  0  0  0  0  0
    2.0801    0.0078    0.9932 O   0  0  0  0  0  0  0  0  0  0  0  0
    1.8706    0.0331   -1.4214 C   0  0  2  0  0  0  0  0  0  0  0  0
    1.5483   -0.8831   -1.9287 H   0  0  0  0  0  0  0  0  0  0  0  0
    1.4043    1.2881   -2.1445 C   0  0  0  0  0  0  0  0  0  0  0  0
    1.7803    1.3052   -3.1748 H   0  0  0  0  0  0  0  0  0  0  0  0
    0.3101    1.3125   -2.2090 H   0  0  0  0  0  0  0  0  0  0  0  0
    1.8608    2.5605   -1.4756 C   0  0  0  0  0  0  0  0  0  0  0  0
    3.2119    2.6543   -1.4009 O   0  0  0  0  0  0  0  0  0  0  0  0
    3.7021    1.8975   -1.7891 H   0  0  0  0  0  0  0  0  0  0  0  0
    1.1016    3.4189   -1.0449 O   0  0  0  0  0  0  0  0  0  0  0  0
    3.2910    0.0324   -1.3896 O   0  0  0  0  0  0  0  0  0  0  0  0
    3.5752   -0.8171   -1.0112 H   0  0  0  0  0  0  0  0  0  0  0  0
   -2.2383    1.3618    2.7490 C   0  0  2  0  0  0  0  0  0  0  0  0
   -3.1016    0.6863    2.7256 H   0  0  0  0  0  0  0  0  0  0  0  0
   -1.4272    0.9192    3.8398 O   0  0  0  0  0  0  0  0  0  0  0  0
   -0.6169    1.4575    3.8447 H   0  0  0  0  0  0  0  0  0  0  0  0
   -2.6729    2.8037    3.0479 C   0  0  1  0  0  0  0  0  0  0  0  0
   -2.0176    3.2734    3.7910 H   0  0  0  0  0  0  0  0  0  0  0  0
   -3.9746    2.7637    3.6338 O   0  0  0  0  0  0  0  0  0  0  0  0
   -4.2520    3.6836    3.7861 H   0  0  0  0  0  0  0  0  0  0  0  0
   -2.7061    3.6387    1.7739 C   0  0  2  0  0  0  0  0  0  0  0  0
   -3.5098    3.2842    1.1152 H   0  0  0  0  0  0  0  0  0  0  0  0
   -3.0303    4.9883    2.1045 O   0  0  0  0  0  0  0  0  0  0  0  0
   -3.0264    5.5000    1.2769 H   0  0  0  0  0  0  0  0  0  0  0  0
   -1.3452    3.6094    1.0635 C   0  0  1  0  0  0  0  0  0  0  0  0
   -0.7100    4.4199    1.4346 H   0  0  0  0  0  0  0  0  0  0  0  0
   -1.5679    3.8545   -0.3246 O   0  0  0  0  0  0  0  0  0  0  0  0
   -0.7673    4.2812   -0.6724 H   0  0  0  0  0  0  0  0  0  0  0  0
   -0.6274    2.3877    1.2627 O   0  0  0  0  0  0  0  0  0  0  0  0
  1 36  1  0  0  0  0
  1 20  1  1  0  0  0
  1  3  1  0  0  0  0
  1  2  1  0  0  0  0
  3  6  1  0  0  0  0
  3  5  1  0  0  0  0
  3  4  1  0  0  0  0
  6  7  1  0  0  0  0
  7  9  1  0  0  0  0
  7  8  2  0  0  0  0
  9 18  1  0  0  0  0
  9 11  1  0  0  0  0
  9 10  1  6  0  0  0
 11 14  1  0  0  0  0
 11 13  1  0  0  0  0
 11 12  1  0  0  0  0
 14 17  2  0  0  0  0
 14 15  1  0  0  0  0
 15 16  1  0  0  0  0
 18 19  1  0  0  0  0
 20 24  1  1  0  0  0
 20 22  1  0  0  0  0
 20 21  1  0  0  0  0
 22 23  1  0  0  0  0
 24 28  1  6  0  0  0
 24 26  1  0  0  0  0
 24 25  1  0  0  0  0
 26 27  1  0  0  0  0
 28 32  1  6  0  0  0
 28 30  1  0  0  0  0
 28 29  1  0  0  0  0
 30 31  1  0  0  0  0
 32 34  1  0  0  0  0
 32 33  1  1  0  0  0
 34 35  1  0  0  0  0
 36 32  1  0  0  0  0
M  END
$$$$
