MSC0458.pdb
 OpenBabel10102413143D

 73 76  0  0  1  0  0  0  0  0999 V2000
    8.3281   -2.3877    1.1484 C   0  0  0  0  0  0  0  0  0  0  0  0
    7.7656   -1.7925    0.0177 C   0  0  0  0  0  0  0  0  0  0  0  0
    8.6484   -1.2681   -0.8835 O   0  0  0  0  0  0  0  0  0  0  0  0
    8.0586   -0.6641   -2.0322 C   0  0  0  0  0  0  0  0  0  0  0  0
    7.5059   -1.4009   -2.6240 H   0  0  0  0  0  0  0  0  0  0  0  0
    7.4160    0.1766   -1.7520 H   0  0  0  0  0  0  0  0  0  0  0  0
    8.8672   -0.2706   -2.6553 H   0  0  0  0  0  0  0  0  0  0  0  0
    6.3691   -1.7739   -0.1125 C   0  0  0  0  0  0  0  0  0  0  0  0
    5.9141   -1.3164   -0.9873 H   0  0  0  0  0  0  0  0  0  0  0  0
    5.5371   -2.3438    0.8726 C   0  0  0  0  0  0  0  0  0  0  0  0
    4.0664   -2.3350    0.7412 C   0  0  0  0  0  0  0  0  0  0  0  0
    3.3711   -1.1821    0.7134 C   0  0  0  0  0  0  0  0  0  0  0  0
    3.8506   -0.2097    0.7368 H   0  0  0  0  0  0  0  0  0  0  0  0
    1.9854   -1.1143    0.6436 O   0  0  0  0  0  0  0  0  0  0  0  0
    1.5186   -0.0107   -0.0114 C   0  0  0  0  0  0  0  0  0  0  0  0
    0.0078    0.0078    0.0078 C   0  0  2  0  0  0  0  0  0  0  0  0
   -0.5569    1.1685   -0.7830 C   0  0  0  0  0  0  0  0  0  0  0  0
   -0.1845    2.1807   -0.7114 H   0  0  0  0  0  0  0  0  0  0  0  0
   -1.5791    0.7983   -1.5728 C   0  0  0  0  0  0  0  0  0  0  0  0
   -2.1445    1.4814   -2.1885 H   0  0  0  0  0  0  0  0  0  0  0  0
   -1.9233   -0.6340   -1.3145 C   0  0  2  0  0  0  0  0  0  0  0  0
   -2.6680   -0.6565   -0.5063 H   0  0  0  0  0  0  0  0  0  0  0  0
   -2.3945   -1.5435   -2.4014 C   0  0  0  0  0  0  0  0  0  0  0  0
   -3.3457   -1.0601   -3.4238 C   0  0  0  0  0  0  0  0  0  0  0  0
   -3.2109   -1.8042   -4.5527 O   0  0  0  0  0  0  0  0  0  0  0  0
   -4.0801   -1.4399   -5.6289 C   0  0  0  0  0  0  0  0  0  0  0  0
   -3.8555   -0.4238   -5.9648 H   0  0  0  0  0  0  0  0  0  0  0  0
   -3.9053   -2.1309   -6.4590 H   0  0  0  0  0  0  0  0  0  0  0  0
   -5.1250   -1.5225   -5.3184 H   0  0  0  0  0  0  0  0  0  0  0  0
   -4.1250   -0.1324   -3.2568 O   0  0  0  0  0  0  0  0  0  0  0  0
   -2.0137   -2.8350   -2.3613 C   0  0  0  0  0  0  0  0  0  0  0  0
   -2.3203   -3.5908   -3.0723 H   0  0  0  0  0  0  0  0  0  0  0  0
   -1.1826   -3.4170   -1.4243 O   0  0  0  0  0  0  0  0  0  0  0  0
   -0.7056   -2.5703   -0.3456 C   0  0  1  0  0  0  0  0  0  0  0  0
    0.2770   -2.9551   -0.0473 H   0  0  0  0  0  0  0  0  0  0  0  0
   -1.5703   -2.5986    0.7864 O   0  0  0  0  0  0  0  0  0  0  0  0
   -1.7568   -3.9102    1.3096 C   0  0  2  0  0  0  0  0  0  0  0  0
   -0.7778   -4.2930    1.6289 H   0  0  0  0  0  0  0  0  0  0  0  0
   -2.7002   -3.7930    2.5127 C   0  0  1  0  0  0  0  0  0  0  0  0
   -3.6064   -3.2402    2.2373 H   0  0  0  0  0  0  0  0  0  0  0  0
   -2.0645   -3.0371    3.5439 O   0  0  0  0  0  0  0  0  0  0  0  0
   -1.2505   -3.5049    3.7988 H   0  0  0  0  0  0  0  0  0  0  0  0
   -3.0674   -5.1738    3.0557 C   0  0  2  0  0  0  0  0  0  0  0  0
   -2.1963   -5.6270    3.5439 H   0  0  0  0  0  0  0  0  0  0  0  0
   -4.0840   -5.0586    4.0469 O   0  0  0  0  0  0  0  0  0  0  0  0
   -3.7539   -4.4512    4.7305 H   0  0  0  0  0  0  0  0  0  0  0  0
   -3.5596   -6.0898    1.9360 C   0  0  2  0  0  0  0  0  0  0  0  0
   -3.7393   -7.0996    2.3223 H   0  0  0  0  0  0  0  0  0  0  0  0
   -4.8047   -5.6055    1.4297 O   0  0  0  0  0  0  0  0  0  0  0  0
   -5.4199   -5.5469    2.1807 H   0  0  0  0  0  0  0  0  0  0  0  0
   -2.5352   -6.1152    0.7961 C   0  0  1  0  0  0  0  0  0  0  0  0
   -1.5752   -6.5117    1.1489 H   0  0  0  0  0  0  0  0  0  0  0  0
   -3.0137   -6.9414   -0.3855 C   0  0  0  0  0  0  0  0  0  0  0  0
   -3.9629   -6.5645   -0.7822 H   0  0  0  0  0  0  0  0  0  0  0  0
   -3.1934   -7.9746   -0.0738 H   0  0  0  0  0  0  0  0  0  0  0  0
   -2.0469   -6.9531   -1.4243 O   0  0  0  0  0  0  0  0  0  0  0  0
   -1.9673   -6.0449   -1.7656 H   0  0  0  0  0  0  0  0  0  0  0  0
   -2.3164   -4.7773    0.3199 O   0  0  0  0  0  0  0  0  0  0  0  0
   -0.5415   -1.1431   -0.8645 C   0  0  1  0  0  0  0  0  0  0  0  0
    0.1147   -1.2207   -1.7529 H   0  0  0  0  0  0  0  0  0  0  0  0
   -0.5171    0.0078    1.3101 O   0  0  0  0  0  0  0  0  0  0  0  0
   -0.2673    0.8384    1.7349 H   0  0  0  0  0  0  0  0  0  0  0  0
    2.1963    0.8953   -0.4929 O   0  0  0  0  0  0  0  0  0  0  0  0
    3.3184   -3.6045    0.6975 C   0  0  0  0  0  0  0  0  0  0  0  0
    4.0742   -4.5840    0.1486 O   0  0  0  0  0  0  0  0  0  0  0  0
    3.5928   -5.4375    0.1079 H   0  0  0  0  0  0  0  0  0  0  0  0
    2.1768   -3.7627    1.0991 O   0  0  0  0  0  0  0  0  0  0  0  0
    6.1406   -2.9355    1.9932 C   0  0  0  0  0  0  0  0  0  0  0  0
    5.5430   -3.3896    2.7793 H   0  0  0  0  0  0  0  0  0  0  0  0
    7.5293   -2.9561    2.1328 C   0  0  0  0  0  0  0  0  0  0  0  0
    7.9727   -3.4180    3.0107 H   0  0  0  0  0  0  0  0  0  0  0  0
    9.6836   -2.4355    1.3276 O   0  0  0  0  0  0  0  0  0  0  0  0
   10.1055   -2.0186    0.5554 H   0  0  0  0  0  0  0  0  0  0  0  0
  1 72  1  0  0  0  0
  1 70  2  0  0  0  0
  1  2  1  0  0  0  0
  2  3  1  0  0  0  0
  3  4  1  0  0  0  0
  4  7  1  0  0  0  0
  4  6  1  0  0  0  0
  4  5  1  0  0  0  0
  8  2  2  0  0  0  0
  8  9  1  0  0  0  0
 10  8  1  0  0  0  0
 10 11  1  0  0  0  0
 11 64  1  0  0  0  0
 11 12  2  0  0  0  0
 12 14  1  0  0  0  0
 12 13  1  0  0  0  0
 14 15  1  0  0  0  0
 15 63  2  0  0  0  0
 15 16  1  0  0  0  0
 16 61  1  0  0  0  0
 16 59  1  6  0  0  0
 16 17  1  0  0  0  0
 17 18  1  0  0  0  0
 19 17  2  0  0  0  0
 19 20  1  0  0  0  0
 21 59  1  1  0  0  0
 21 19  1  0  0  0  0
 21 22  1  0  0  0  0
 23 24  1  0  0  0  0
 23 21  1  0  0  0  0
 24 30  2  0  0  0  0
 24 25  1  0  0  0  0
 25 26  1  0  0  0  0
 26 29  1  0  0  0  0
 26 28  1  0  0  0  0
 26 27  1  0  0  0  0
 31 23  2  0  0  0  0
 31 32  1  0  0  0  0
 33 31  1  0  0  0  0
 34 59  1  6  0  0  0
 34 36  1  0  0  0  0
 34 33  1  0  0  0  0
 34 35  1  0  0  0  0
 36 37  1  0  0  0  0
 37 58  1  0  0  0  0
 37 39  1  1  0  0  0
 37 38  1  0  0  0  0
 39 43  1  1  0  0  0
 39 41  1  0  0  0  0
 39 40  1  0  0  0  0
 41 42  1  0  0  0  0
 43 47  1  6  0  0  0
 43 45  1  0  0  0  0
 43 44  1  0  0  0  0
 45 46  1  0  0  0  0
 47 51  1  6  0  0  0
 47 49  1  0  0  0  0
 47 48  1  0  0  0  0
 49 50  1  0  0  0  0
 51 53  1  0  0  0  0
 51 52  1  1  0  0  0
 53 56  1  0  0  0  0
 53 55  1  0  0  0  0
 53 54  1  0  0  0  0
 56 57  1  0  0  0  0
 58 51  1  0  0  0  0
 59 60  1  6  0  0  0
 61 62  1  0  0  0  0
 64 67  2  0  0  0  0
 64 65  1  0  0  0  0
 65 66  1  0  0  0  0
 68 10  2  0  0  0  0
 68 69  1  0  0  0  0
 70 68  1  0  0  0  0
 70 71  1  0  0  0  0
 72 73  1  0  0  0  0
M  END
$$$$
